OPT_V8/My_Campus_24/powerflow_results_t1.txt
Pandapower Network Debug Info
==================================================

BUS:
       vm_pu  va_degree      p_mw    q_mvar
0   0.992766   0.129321  0.001191  0.001158
1   0.988209   0.225554  0.001560  0.002179
2   0.984228   0.322641  0.001809  0.003233
3   0.989097   0.197753  0.002528  0.003727
4   0.989068   0.289053  0.002730  0.005571
5   0.991187   0.180661  0.003759  0.006699
6   0.989451   0.191658  0.001122  0.001091
7   0.997295   0.038215  0.001818  0.002351
8   0.997780   0.045828  0.002246  0.002749
9   0.999886   0.000677  0.010916  0.009171
10  0.999873   0.000732  0.010310  0.010220
11  0.999864   0.000750  0.011829  0.009846
12  0.999764   0.001910  0.009515  0.004868
13  0.999734   0.002183  0.011773  0.011684
14  0.999744   0.002113  0.014182  0.013425
15  0.999930   0.000523  0.000000  0.000000
16  0.999929   0.000529  0.000000  0.000000
17  0.999769   0.001961  0.000000  0.000000
18  0.999769   0.001972  0.000000  0.000000
19  1.000000   0.000000 -0.040295 -0.044637
20  1.000000   0.000006  0.000000  0.000000
21  1.000000   0.000000 -0.047318 -0.053557
22  1.000000   0.000007  0.000000  0.000000
--------------------------------------------------

LINE:
    p_from_mw  q_from_mvar   p_to_mw  q_to_mvar         pl_mw       ql_mvar  i_from_ka   i_to_ka      i_ka  vm_from_pu  va_from_degree  vm_to_pu  va_to_degree  loading_percent
0    0.040285     0.040637 -0.040282  -0.040635  3.202698e-06  2.497196e-06   0.002202  0.002202  0.002202    1.000000        0.000006  0.999930      0.000523         0.957589
1    0.047308     0.049557 -0.047295  -0.049547  1.262609e-05  9.844768e-06   0.002637  0.002637  0.002637    1.000000        0.000007  0.999769      0.001961         1.146540
2    0.033058     0.029239 -0.033056  -0.029238  1.506378e-06  1.174547e-06   0.001699  0.001699  0.001699    0.999930        0.000523  0.999886      0.000677         0.738615
3    0.009515     0.004868 -0.009515  -0.004868  3.952656e-08  3.081951e-08   0.000411  0.000411  0.000411    0.999769        0.001961  0.999764      0.001910         0.178912
4    0.025956     0.025110 -0.025955  -0.025109  7.134555e-07  5.562930e-07   0.001390  0.001390  0.001390    0.999769        0.001961  0.999744      0.002113         0.604494
5    0.007214     0.010396 -0.007139  -0.010337  7.490057e-05  5.840121e-05   0.018265  0.018265  0.018265    0.999929        0.000529  0.992766      0.129321         7.941469
6    0.004950     0.007843 -0.004883  -0.007791  6.676479e-05  5.205761e-05   0.013390  0.013390  0.013390    0.999769        0.001972  0.991187      0.180661         5.821643
7    0.001824     0.002356 -0.001818  -0.002351  5.999241e-06  4.677707e-06   0.004301  0.004301  0.004301    0.999769        0.001972  0.997295      0.038215         1.870047
8    0.005040     0.008371 -0.005024  -0.008358  1.642351e-05  1.280568e-05   0.014107  0.014107  0.014107    0.999769        0.001972  0.997780      0.045828         6.133371
9   -0.022140    -0.020066  0.022140   0.020067  3.088384e-07  2.408064e-07   0.001150  0.001150  0.001150    0.999873        0.000732  0.999886      0.000677         0.500103
10  -0.011829    -0.009846  0.011829   0.009846  1.158798e-07  9.035340e-08   0.000592  0.000592  0.000592    0.999864        0.000750  0.999873      0.000732         0.257597
11   0.011773     0.011684 -0.011773  -0.011684  1.346199e-07  1.049653e-07   0.000639  0.000639  0.000639    0.999744        0.002113  0.999734      0.002183         0.277646
12  -0.003382    -0.005422  0.003406   0.005441  2.473789e-05  1.928854e-05   0.009333  0.009333  0.009333    0.988209        0.225554  0.992766      0.129321         4.057978
13  -0.002528    -0.003727  0.002541   0.003738  1.384203e-05  1.079286e-05   0.006572  0.006572  0.006572    0.989097        0.197753  0.992766      0.129321         2.857366
14  -0.001809    -0.003233  0.001822   0.003243  1.281500e-05  9.992065e-06   0.005433  0.005433  0.005433    0.984228        0.322641  0.988209      0.225554         2.362022
15   0.002778     0.005609 -0.002730  -0.005571  4.787611e-05  3.732979e-05   0.009054  0.009054  0.009054    0.997780        0.045828  0.989068      0.289053         3.936494
16  -0.001122    -0.001091  0.001124   0.001093  2.177080e-06  1.697505e-06   0.002282  0.002282  0.002282    0.989451        0.191658  0.991187      0.180661         0.992371
--------------------------------------------------

TRAFO:
    p_hv_mw  q_hv_mvar   p_lv_mw  q_lv_mvar    pl_mw   ql_mvar   i_hv_ka   i_lv_ka  vm_hv_pu  va_hv_degree  vm_lv_pu  va_lv_degree  loading_percent
0  0.007224   0.011396 -0.007214  -0.010396  0.00001  0.001000  0.000519  0.018265  0.999930      0.000523  0.999929      0.000529         0.134935
1  0.011824   0.019569 -0.011814  -0.018570  0.00001  0.000999  0.000880  0.031775  0.999769      0.001961  0.999769      0.001972         0.228693
2  0.040295   0.044637 -0.040285  -0.040637  0.00001  0.004000  0.000496  0.002202  1.000000      0.000000  1.000000      0.000006         0.150337
3  0.047318   0.053557 -0.047308  -0.049557  0.00001  0.004000  0.000589  0.002637  1.000000      0.000000  1.000000      0.000007         0.178664
--------------------------------------------------
